Circuit: * E:\Users\nerdfloor\Documents\Develop\PCM2704_HPA\spice\PCM2704_Snubber.asc

.step rcpl=330
.step rcpl=1000
.step rcpl=10000

Date: Wed Nov 06 18:23:58 2019
Total elapsed time: 0.486 seconds.

tnom = 27
temp = 27
method = trap
totiter = 0
traniter = 0
tranpoints = 0
accept = 0
rejected = 0
matrix size = 5
fillins = 0
solver = Normal

